-------------------------------------------------------
          Amber 9  SANDER                 Scripps/UCSF 2004
          -------------------------------------------------------

  [-O]verwriting output

File Assignments:

 Here is the input file:

Stage 1 heating of TC5b 150 to 200K
 &cntrl
  imin=0, irest=1, ntx=5,
  nstlim=10000, dt=0.0005,
  ntc=2, ntf=2,
  ntt=1, tautp=1.0,
  tempi=150.0, temp0=200.0,
  ntpr=50, ntwx=50,
  ntb=0, igb=1,
  cut=999.0,rgbmax=999.
 /

--------------------------------------------------------------------------------
   1.  RESOURCE   USE:
--------------------------------------------------------------------------------

 NATOM  =     304 NTYPES =      12 NBONH =     150 MBONA  =     160
 NTHETH =     346 MTHETA =     219 NPHIH =     653 MPHIA  =     403
 NHPARM =       0 NPARM  =       0 NNB   =    1701 NRES   =      20
 NBONA  =     160 NTHETA =     219 NPHIA =     403 NUMBND =      32
 NUMANG =      70 NPTRA  =      34 NATYP =      21 NPHB   =       0
 IFBOX  =       0 NMXRS  =      24 IFCAP =       0 NEXTRA =       0
 NCOPY  =       0

--------------------------------------------------------------------------------
   2.  CONTROL  DATA  FOR  THE  RUN
--------------------------------------------------------------------------------

NASN

General flags:
     imin    =       0, nmropt  =       0

Nature and format of input:
     ntx     =       5, irest   =       1, ntrx    =       1

Nature and format of output:
     ntxo    =       1, ntpr    =      50, ntrx    =       1, ntwr    =     500
     iwrap   =       0, ntwx    =      50, ntwv    =       0, ntwe    =       0
     ioutfm  =       0, ntwprt  =       0, idecomp =       0, rbornstat=      0

Potential function:
     ntf     =       2, ntb     =       0, igb     =       1, nsnb    =      25
     ipol    =       0, gbsa    =       0, iesp    =       0
     dielc   =   1.00000, cut     = 999.00000, intdiel =   1.00000
     saltcon =   0.00000, offset  =   0.09000, gbalpha=    1.00000
     gbbeta  =   0.00000, gbgamma =   0.00000, surften =   0.00500
     rdt     =   0.00000, rgbmax  = 999.00000
     scnb    =   2.00000, scee    =   1.20000

Frozen or restrained atoms:
     ibelly  =       0, ntr     =       0

Molecular dynamics:
     nstlim  =     10000, nscm    =      1000, nrespa  =         1
     t       =   0.00000, dt      =   0.00050, vlimit  =  20.00000

Berendsen (weak-coupling) temperature regulation:
     temp0   = 200.00000, tempi   = 150.00000, tautp   =   1.00000

SHAKE:
     ntc     =       2, jfastw  =       0
     tol     =   0.00001

--------------------------------------------------------------------------------
   3.  ATOMIC COORDINATES AND VELOCITIES
--------------------------------------------------------------------------------

NASN
 begin time read from input coords =    15.000 ps

 Number of triangulated 3-point waters found:        0

--------------------------------------------------------------------------------
   4.  RESULTS
 NSTEP =       50   TIME(PS) =      15.025  TEMP(K) =   139.76  PRESS =     0.0
 Etot   =      -493.0426  EKtot   =       104.9784  EPtot      =      -598.0210
 BOND   =        22.2076  ANGLE   =        69.6839  DIHED      =       139.8238
 1-4 NB =        59.8044  1-4 EEL =       864.8926  VDWAALS    =       -54.7184
 EELEC  =     -1260.4171  EGB     =      -439.2977  RESTRAINT  =         0.0000
 ------------------------------------------------------------------------------

      A V E R A G E S   O V E R   10000 S T E P S

 NSTEP =    10000   TIME(PS) =      20.000  TEMP(K) =   177.43  PRESS =     0.0
 Etot   =      -435.5749  EKtot   =       133.2795  EPtot      =      -568.8544
 BOND   =        29.3671  ANGLE   =        85.2587  DIHED      =       149.6064
 1-4 NB =        56.1662  1-4 EEL =       877.2809  VDWAALS    =       -59.9410
 EELEC  =     -1268.7549  EGB     =      -437.8378  RESTRAINT  =         0.0000
 ------------------------------------------------------------------------------

      R M S  F L U C T U A T I O N S

 NSTEP =    10000   TIME(PS) =      20.000  TEMP(K) =    16.99  PRESS =     0.0
 Etot   =        24.4658  EKtot   =        12.7587  EPtot      =        14.5164
 BOND   =         4.9694  ANGLE   =         9.5677  DIHED      =         7.4119
 1-4 NB =         3.1039  1-4 EEL =        12.2262  VDWAALS    =         3.6112
 EELEC  =        14.9109  EGB     =        12.6458  RESTRAINT  =         0.0000
 ------------------------------------------------------------------------------
