-------------------------------------------------------
          Amber 9  SANDER                 Scripps/UCSF 2004
          -------------------------------------------------------

  [-O]verwriting output

File Assignments:

 Here is the input file:

Stage 1 heating of TC5b 250 to 300K
 &cntrl
  imin=0, irest=1, ntx=5,
  nstlim=10000, dt=0.0005,
  ntc=2, ntf=2,
  ntt=1, tautp=1.0,
  tempi=250.0, temp0=300.0,
  ntpr=50, ntwx=50,
  ntb=0, igb=1,
  cut=999.,rgbmax=999.
 /

--------------------------------------------------------------------------------
   1.  RESOURCE   USE:
--------------------------------------------------------------------------------

 NATOM  =     304 NTYPES =      12 NBONH =     150 MBONA  =     160
 NTHETH =     346 MTHETA =     219 NPHIH =     653 MPHIA  =     403
 NHPARM =       0 NPARM  =       0 NNB   =    1701 NRES   =      20
 NBONA  =     160 NTHETA =     219 NPHIA =     403 NUMBND =      32
 NUMANG =      70 NPTRA  =      34 NATYP =      21 NPHB   =       0
 IFBOX  =       0 NMXRS  =      24 IFCAP =       0 NEXTRA =       0
 NCOPY  =       0

--------------------------------------------------------------------------------
   2.  CONTROL  DATA  FOR  THE  RUN
--------------------------------------------------------------------------------

NASN

General flags:
     imin    =       0, nmropt  =       0

Nature and format of input:
     ntx     =       5, irest   =       1, ntrx    =       1

Nature and format of output:
     ntxo    =       1, ntpr    =      50, ntrx    =       1, ntwr    =     500
     iwrap   =       0, ntwx    =      50, ntwv    =       0, ntwe    =       0
     ioutfm  =       0, ntwprt  =       0, idecomp =       0, rbornstat=      0

Potential function:
     ntf     =       2, ntb     =       0, igb     =       1, nsnb    =      25
     ipol    =       0, gbsa    =       0, iesp    =       0
     dielc   =   1.00000, cut     = 999.00000, intdiel =   1.00000
     saltcon =   0.00000, offset  =   0.09000, gbalpha=    1.00000
     gbbeta  =   0.00000, gbgamma =   0.00000, surften =   0.00500
     rdt     =   0.00000, rgbmax  = 999.00000
     scnb    =   2.00000, scee    =   1.20000

Frozen or restrained atoms:
     ibelly  =       0, ntr     =       0

Molecular dynamics:
     nstlim  =     10000, nscm    =      1000, nrespa  =         1
     t       =   0.00000, dt      =   0.00050, vlimit  =  20.00000

Berendsen (weak-coupling) temperature regulation:
     temp0   = 300.00000, tempi   = 250.00000, tautp   =   1.00000

SHAKE:
     ntc     =       2, jfastw  =       0
     tol     =   0.00001

--------------------------------------------------------------------------------
   3.  ATOMIC COORDINATES AND VELOCITIES
--------------------------------------------------------------------------------

NASN
 begin time read from input coords =    25.000 ps

 Number of triangulated 3-point waters found:        0

--------------------------------------------------------------------------------
   4.  RESULTS
 NSTEP =       50   TIME(PS) =      25.025  TEMP(K) =   242.33  PRESS =     0.0
 Etot   =      -339.5850  EKtot   =       182.0258  EPtot      =      -521.6108
 BOND   =        45.9304  ANGLE   =       119.5253  DIHED      =       143.8334
 1-4 NB =        59.2274  1-4 EEL =       879.5235  VDWAALS    =       -60.8660
 EELEC  =     -1230.2130  EGB     =      -478.5719  RESTRAINT  =         0.0000
 ------------------------------------------------------------------------------

      A V E R A G E S   O V E R   10000 S T E P S

 NSTEP =    10000   TIME(PS) =      30.000  TEMP(K) =   279.82  PRESS =     0.0
 Etot   =      -287.6765  EKtot   =       210.1926  EPtot      =      -497.8691
 BOND   =        49.5281  ANGLE   =       131.9432  DIHED      =       154.9511
 1-4 NB =        58.4252  1-4 EEL =       874.4364  VDWAALS    =       -60.0250
 EELEC  =     -1265.3770  EGB     =      -441.7512  RESTRAINT  =         0.0000
 ------------------------------------------------------------------------------

      R M S  F L U C T U A T I O N S

 NSTEP =    10000   TIME(PS) =      30.000  TEMP(K) =    16.80  PRESS =     0.0
 Etot   =        21.8442  EKtot   =        12.6166  EPtot      =        13.4801
 BOND   =         5.5663  ANGLE   =         8.9332  DIHED      =         7.6039
 1-4 NB =         3.3039  1-4 EEL =        11.4663  VDWAALS    =         4.2586
 EELEC  =        20.7525  EGB     =        18.3702  RESTRAINT  =         0.0000
 ------------------------------------------------------------------------------
