-------------------------------------------------------
          Amber 9  SANDER                 Scripps/UCSF 2004
          -------------------------------------------------------

  [-O]verwriting output

File Assignments:

 Here is the input file:

Stage 1 heating of TC5b 300 to 325K
 &cntrl
  imin=0, irest=1, ntx=5,
  nstlim=40000, dt=0.0005,
  ntc=2, ntf=2,
  ntt=1, tautp=1.0,
  tempi=300.0, temp0=325.0,
  ntpr=50, ntwx=50,
  ntb=0, igb=1,
  cut=999.,rgbmax=999.
 /

--------------------------------------------------------------------------------
   1.  RESOURCE   USE:
--------------------------------------------------------------------------------

 NATOM  =     304 NTYPES =      12 NBONH =     150 MBONA  =     160
 NTHETH =     346 MTHETA =     219 NPHIH =     653 MPHIA  =     403
 NHPARM =       0 NPARM  =       0 NNB   =    1701 NRES   =      20
 NBONA  =     160 NTHETA =     219 NPHIA =     403 NUMBND =      32
 NUMANG =      70 NPTRA  =      34 NATYP =      21 NPHB   =       0
 IFBOX  =       0 NMXRS  =      24 IFCAP =       0 NEXTRA =       0
 NCOPY  =       0

--------------------------------------------------------------------------------
   2.  CONTROL  DATA  FOR  THE  RUN
--------------------------------------------------------------------------------

NASN

General flags:
     imin    =       0, nmropt  =       0

Nature and format of input:
     ntx     =       5, irest   =       1, ntrx    =       1

Nature and format of output:
     ntxo    =       1, ntpr    =      50, ntrx    =       1, ntwr    =     500
     iwrap   =       0, ntwx    =      50, ntwv    =       0, ntwe    =       0
     ioutfm  =       0, ntwprt  =       0, idecomp =       0, rbornstat=      0

Potential function:
     ntf     =       2, ntb     =       0, igb     =       1, nsnb    =      25
     ipol    =       0, gbsa    =       0, iesp    =       0
     dielc   =   1.00000, cut     = 999.00000, intdiel =   1.00000
     saltcon =   0.00000, offset  =   0.09000, gbalpha=    1.00000
     gbbeta  =   0.00000, gbgamma =   0.00000, surften =   0.00500
     rdt     =   0.00000, rgbmax  = 999.00000
     scnb    =   2.00000, scee    =   1.20000

Frozen or restrained atoms:
     ibelly  =       0, ntr     =       0

Molecular dynamics:
     nstlim  =     40000, nscm    =      1000, nrespa  =         1
     t       =   0.00000, dt      =   0.00050, vlimit  =  20.00000

Berendsen (weak-coupling) temperature regulation:
     temp0   = 325.00000, tempi   = 300.00000, tautp   =   1.00000

SHAKE:
     ntc     =       2, jfastw  =       0
     tol     =   0.00001

--------------------------------------------------------------------------------
   3.  ATOMIC COORDINATES AND VELOCITIES
--------------------------------------------------------------------------------

NASN
 begin time read from input coords =    30.000 ps

 Number of triangulated 3-point waters found:        0

--------------------------------------------------------------------------------
   4.  RESULTS
 NSTEP =       50   TIME(PS) =      30.025  TEMP(K) =   294.84  PRESS =     0.0
 Etot   =      -264.2967  EKtot   =       221.4751  EPtot      =      -485.7718
 BOND   =        51.7971  ANGLE   =       145.4486  DIHED      =       156.7514
 1-4 NB =        61.2516  1-4 EEL =       893.8049  VDWAALS    =       -66.4387
 EELEC  =     -1289.9070  EGB     =      -438.4796  RESTRAINT  =         0.0000
 ------------------------------------------------------------------------------

      A V E R A G E S   O V E R   40000 S T E P S

 NSTEP =    40000   TIME(PS) =      50.000  TEMP(K) =   322.12  PRESS =     0.0
 Etot   =      -219.9112  EKtot   =       241.9598  EPtot      =      -461.8710
 BOND   =        61.2446  ANGLE   =       154.5107  DIHED      =       155.2992
 1-4 NB =        59.7862  1-4 EEL =       887.6668  VDWAALS    =       -62.0953
 EELEC  =     -1282.2555  EGB     =      -436.0277  RESTRAINT  =         0.0000
 ------------------------------------------------------------------------------

      R M S  F L U C T U A T I O N S

 NSTEP =    40000   TIME(PS) =      50.000  TEMP(K) =    13.34  PRESS =     0.0
 Etot   =        10.7184  EKtot   =        10.0174  EPtot      =        10.7054
 BOND   =         6.6210  ANGLE   =         9.5585  DIHED      =         5.9631
 1-4 NB =         3.6030  1-4 EEL =        10.7653  VDWAALS    =         5.3468
 EELEC  =        20.6719  EGB     =        16.3357  RESTRAINT  =         0.0000
 ------------------------------------------------------------------------------
