-------------------------------------------------------
          Amber 9  SANDER                 Scripps/UCSF 2004
          -------------------------------------------------------

  [-O]verwriting output

File Assignments:

 Here is the input file:

Stage 1 heating of TC5b 200 to 250K
 &cntrl
  imin=0, irest=1, ntx=5,
  nstlim=10000, dt=0.0005,
  ntc=2, ntf=2,
  ntt=1, tautp=1.0,
  tempi=200.0, temp0=250.0,
  ntpr=50, ntwx=50,
  ntb=0, igb=1,
  cut=999.,rgbmax=999.
 /

--------------------------------------------------------------------------------
   1.  RESOURCE   USE:
--------------------------------------------------------------------------------

 NATOM  =     304 NTYPES =      12 NBONH =     150 MBONA  =     160
 NTHETH =     346 MTHETA =     219 NPHIH =     653 MPHIA  =     403
 NHPARM =       0 NPARM  =       0 NNB   =    1701 NRES   =      20
 NBONA  =     160 NTHETA =     219 NPHIA =     403 NUMBND =      32
 NUMANG =      70 NPTRA  =      34 NATYP =      21 NPHB   =       0
 IFBOX  =       0 NMXRS  =      24 IFCAP =       0 NEXTRA =       0
 NCOPY  =       0

--------------------------------------------------------------------------------
   2.  CONTROL  DATA  FOR  THE  RUN
--------------------------------------------------------------------------------

NASN

General flags:
     imin    =       0, nmropt  =       0

Nature and format of input:
     ntx     =       5, irest   =       1, ntrx    =       1

Nature and format of output:
     ntxo    =       1, ntpr    =      50, ntrx    =       1, ntwr    =     500
     iwrap   =       0, ntwx    =      50, ntwv    =       0, ntwe    =       0
     ioutfm  =       0, ntwprt  =       0, idecomp =       0, rbornstat=      0

Potential function:
     ntf     =       2, ntb     =       0, igb     =       1, nsnb    =      25
     ipol    =       0, gbsa    =       0, iesp    =       0
     dielc   =   1.00000, cut     = 999.00000, intdiel =   1.00000
     saltcon =   0.00000, offset  =   0.09000, gbalpha=    1.00000
     gbbeta  =   0.00000, gbgamma =   0.00000, surften =   0.00500
     rdt     =   0.00000, rgbmax  = 999.00000
     scnb    =   2.00000, scee    =   1.20000

Frozen or restrained atoms:
     ibelly  =       0, ntr     =       0

Molecular dynamics:
     nstlim  =     10000, nscm    =      1000, nrespa  =         1
     t       =   0.00000, dt      =   0.00050, vlimit  =  20.00000

Berendsen (weak-coupling) temperature regulation:
     temp0   = 250.00000, tempi   = 200.00000, tautp   =   1.00000

SHAKE:
     ntc     =       2, jfastw  =       0
     tol     =   0.00001

--------------------------------------------------------------------------------
   3.  ATOMIC COORDINATES AND VELOCITIES
--------------------------------------------------------------------------------

NASN
 begin time read from input coords =    20.000 ps

 Number of triangulated 3-point waters found:        0

--------------------------------------------------------------------------------
   4.  RESULTS
 NSTEP =       50   TIME(PS) =      20.025  TEMP(K) =   195.76  PRESS =     0.0
 Etot   =      -408.4774  EKtot   =       147.0477  EPtot      =      -555.5251
 BOND   =        36.9998  ANGLE   =        94.1184  DIHED      =       142.4985
 1-4 NB =        56.4620  1-4 EEL =       897.7098  VDWAALS    =       -54.9319
 EELEC  =     -1302.0400  EGB     =      -426.3416  RESTRAINT  =         0.0000
 ------------------------------------------------------------------------------

      A V E R A G E S   O V E R   10000 S T E P S

 NSTEP =    10000   TIME(PS) =      25.000  TEMP(K) =   231.62  PRESS =     0.0
 Etot   =      -360.2267  EKtot   =       173.9847  EPtot      =      -534.2114
 BOND   =        39.8643  ANGLE   =       108.8234  DIHED      =       149.1701
 1-4 NB =        56.8231  1-4 EEL =       887.6340  VDWAALS    =       -57.2749
 EELEC  =     -1259.9612  EGB     =      -459.2902  RESTRAINT  =         0.0000
 ------------------------------------------------------------------------------

      R M S  F L U C T U A T I O N S

 NSTEP =    10000   TIME(PS) =      25.000  TEMP(K) =    16.49  PRESS =     0.0
 Etot   =        19.5037  EKtot   =        12.3864  EPtot      =        11.2297
 BOND   =         5.3089  ANGLE   =         8.9186  DIHED      =         5.4552
 1-4 NB =         3.0046  1-4 EEL =         9.3689  VDWAALS    =         2.8504
 EELEC  =        18.1414  EGB     =        14.2214  RESTRAINT  =         0.0000
 ------------------------------------------------------------------------------
