-------------------------------------------------------
          Amber 9  SANDER                 Scripps/UCSF 2004
          -------------------------------------------------------

  [-O]verwriting output

File Assignments:

 Here is the input file:

Stage 1 heating of TC5b 100 to 150K
 &cntrl
  imin=0, irest=1, ntx=5,
  nstlim=10000, dt=0.0005,
  ntc=2, ntf=2,
  ntt=1, tautp=1.0,
  tempi=100.0, temp0=150.0,
  ntpr=50, ntwx=50,
  ntb=0, igb=1,
  cut=999.0,rgbmax=999.
 /

--------------------------------------------------------------------------------
   1.  RESOURCE   USE:
--------------------------------------------------------------------------------

 NATOM  =     304 NTYPES =      12 NBONH =     150 MBONA  =     160
 NTHETH =     346 MTHETA =     219 NPHIH =     653 MPHIA  =     403
 NHPARM =       0 NPARM  =       0 NNB   =    1701 NRES   =      20
 NBONA  =     160 NTHETA =     219 NPHIA =     403 NUMBND =      32
 NUMANG =      70 NPTRA  =      34 NATYP =      21 NPHB   =       0
 IFBOX  =       0 NMXRS  =      24 IFCAP =       0 NEXTRA =       0
 NCOPY  =       0

--------------------------------------------------------------------------------
   2.  CONTROL  DATA  FOR  THE  RUN
--------------------------------------------------------------------------------

NASN

General flags:
     imin    =       0, nmropt  =       0

Nature and format of input:
     ntx     =       5, irest   =       1, ntrx    =       1

Nature and format of output:
     ntxo    =       1, ntpr    =      50, ntrx    =       1, ntwr    =     500
     iwrap   =       0, ntwx    =      50, ntwv    =       0, ntwe    =       0
     ioutfm  =       0, ntwprt  =       0, idecomp =       0, rbornstat=      0

Potential function:
     ntf     =       2, ntb     =       0, igb     =       1, nsnb    =      25
     ipol    =       0, gbsa    =       0, iesp    =       0
     dielc   =   1.00000, cut     = 999.00000, intdiel =   1.00000
     saltcon =   0.00000, offset  =   0.09000, gbalpha=    1.00000
     gbbeta  =   0.00000, gbgamma =   0.00000, surften =   0.00500
     rdt     =   0.00000, rgbmax  = 999.00000
     scnb    =   2.00000, scee    =   1.20000

Frozen or restrained atoms:
     ibelly  =       0, ntr     =       0

Molecular dynamics:
     nstlim  =     10000, nscm    =      1000, nrespa  =         1
     t       =   0.00000, dt      =   0.00050, vlimit  =  20.00000

Berendsen (weak-coupling) temperature regulation:
     temp0   = 150.00000, tempi   = 100.00000, tautp   =   1.00000

SHAKE:
     ntc     =       2, jfastw  =       0
     tol     =   0.00001

--------------------------------------------------------------------------------
   3.  ATOMIC COORDINATES AND VELOCITIES
--------------------------------------------------------------------------------

NASN
 begin time read from input coords =    10.000 ps

 Number of triangulated 3-point waters found:        0

--------------------------------------------------------------------------------
   4.  RESULTS
 NSTEP =       50   TIME(PS) =      10.025  TEMP(K) =    93.33  PRESS =     0.0
 Etot   =      -570.8137  EKtot   =        70.1083  EPtot      =      -640.9220
 BOND   =        18.1806  ANGLE   =        49.8400  DIHED      =       140.6585
 1-4 NB =        51.4700  1-4 EEL =       852.9029  VDWAALS    =       -69.3495
 EELEC  =     -1221.2742  EGB     =      -463.3504  RESTRAINT  =         0.0000
 ------------------------------------------------------------------------------

      A V E R A G E S   O V E R   10000 S T E P S

 NSTEP =    10000   TIME(PS) =      15.000  TEMP(K) =   129.31  PRESS =     0.0
 Etot   =      -522.6386  EKtot   =        97.1343  EPtot      =      -619.7729
 BOND   =        19.6082  ANGLE   =        62.3972  DIHED      =       136.0482
 1-4 NB =        53.5848  1-4 EEL =       865.5846  VDWAALS    =       -63.5782
 EELEC  =     -1245.2998  EGB     =      -448.1180  RESTRAINT  =         0.0000
 ------------------------------------------------------------------------------

      R M S  F L U C T U A T I O N S

 NSTEP =    10000   TIME(PS) =      15.000  TEMP(K) =    13.36  PRESS =     0.0
 Etot   =        20.3671  EKtot   =        10.0324  EPtot      =        13.8960
 BOND   =         3.2881  ANGLE   =         6.8312  DIHED      =         4.4659
 1-4 NB =         2.7524  1-4 EEL =        12.5882  VDWAALS    =         6.8684
 EELEC  =        31.8782  EGB     =        24.9888  RESTRAINT  =         0.0000
 ------------------------------------------------------------------------------
