-------------------------------------------------------
          Amber 20 SANDER                              2020
          -------------------------------------------------------

  [-O]verwriting output

File Assignments:

 Here is the input file:

Production
 &cntrl
  imin=0,
  ntx=5,
  irest=1,
  nstlim=30000,
  dt=0.002,
  ntf=2,
  ntc=2,
  temp0=300.0,
  ntpr=100,
  ntwx=100,
  cut=8.0,
  ntb=2,
  ntp=1,
  ntt=3,
  gamma_ln=2.0,
  ig=-1,
 /

--------------------------------------------------------------------------------
   1.  RESOURCE   USE:
--------------------------------------------------------------------------------

 getting box info from netcdf restart file
 NATOM  =    1912 NTYPES =       9 NBONH =    1902 MBONA  =       9
 NTHETH =      25 MTHETA =      11 NPHIH =      43 MPHIA  =      24
 NHPARM =       0 NPARM  =       0 NNB   =    2619 NRES   =     633
 NBONA  =       9 NTHETA =      11 NPHIA =      24 NUMBND =      13
 NUMANG =      21 NPTRA  =      20 NATYP =      10 NPHB   =       1
 IFBOX  =       1 NMXRS  =      10 IFCAP =       0 NEXTRA =       0
 NCOPY  =       0

     BOX TYPE: RECTILINEAR
Note: ig = -1. Setting random seed to   965957 based on wallclock time in microseconds.

--------------------------------------------------------------------------------
   2.  CONTROL  DATA  FOR  THE  RUN
--------------------------------------------------------------------------------

ACE

General flags:
     imin    =       0, nmropt  =       0

Nature and format of input:
     ntx     =       5, irest   =       1, ntrx    =       1

Nature and format of output:
     ntxo    =       2, ntpr    =     100, ntrx    =       1, ntwr    =   30000
     iwrap   =       0, ntwx    =     100, ntwv    =       0, ntwe    =       0
     ioutfm  =       1, ntwprt  =       0, idecomp =       0, rbornstat=      0

Potential function:
     ntf     =       2, ntb     =       2, igb     =       0, nsnb    =      25
     ipol    =       0, gbsa    =       0, iesp    =       0
     dielc   =   1.00000, cut     =   8.00000, intdiel =   1.00000

Frozen or restrained atoms:
     ibelly  =       0, ntr     =       0

Molecular dynamics:
     nstlim  =     30000, nscm    =      1000, nrespa  =         1
     t       =   0.00000, dt      =   0.00200, vlimit  =  20.00000

Langevin dynamics temperature regulation:
     ig      =  965957
     temp0   = 300.00000, tempi   =   0.00000, gamma_ln=   2.00000

Pressure regulation:
     ntp     =       1
     pres0   =   1.00000, comp    =  44.60000, taup    =   1.00000

SHAKE:
     ntc     =       2, jfastw  =       0
     tol     =   0.00001

Ewald parameters:
     verbose =       0, ew_type =       0, nbflag  =       1, use_pme =       1
     vdwmeth =       1, eedmeth =       1, netfrc  =       1
     Box X =   31.398   Box Y =   34.100   Box Z =   29.273
     Alpha =   90.000   Beta  =   90.000   Gamma =   90.000
     NFFT1 =   32       NFFT2 =   36       NFFT3 =   30
     Cutoff=    8.000   Tol   =0.100E-04
     Ewald Coefficient =  0.34864
     Interpolation order =    4

--------------------------------------------------------------------------------
   3.  ATOMIC COORDINATES AND VELOCITIES
--------------------------------------------------------------------------------

ACE
 begin time read from input coords =    20.000 ps

 Number of triangulated 3-point waters found:      630

     Sum of charges from parm topology file =  -0.00000000
     Forcing neutrality...

--------------------------------------------------------------------------------
   4.  RESULTS
 NSTEP =      100   TIME(PS) =      20.200  TEMP(K) =   303.86  PRESS =  -623.9
 Etot   =     -4461.6808  EKtot   =      1157.5344  EPtot      =     -5619.2152
 BOND   =         3.1349  ANGLE   =        11.0655  DIHED      =        10.4302
 1-4 NB =         3.2660  1-4 EEL =        43.8094  VDWAALS    =       814.8265
 EELEC  =     -6505.7477  EHBOND  =         0.0000  RESTRAINT  =         0.0000
 EKCMT  =       578.4575  VIRIAL  =       998.3942  VOLUME     =     31172.6156
                                                    Density    =         0.6123
 Ewald error estimate:   0.3159E-03
 ------------------------------------------------------------------------------

      A V E R A G E S   O V E R   30000 S T E P S

 NSTEP =    30000   TIME(PS) =      80.000  TEMP(K) =   299.55  PRESS =  -178.3
 Etot   =     -4820.7915  EKtot   =      1141.1099  EPtot      =     -5961.9014
 BOND   =         3.2697  ANGLE   =         9.1508  DIHED      =        11.5988
 1-4 NB =         3.1612  1-4 EEL =        46.8779  VDWAALS    =       882.3758
 EELEC  =     -6918.3357  EHBOND  =         0.0000  RESTRAINT  =         0.0000
 EKCMT  =       564.3506  VIRIAL  =       660.2691  VOLUME     =     21719.8376
                                                    Density    =         0.8995
 Ewald error estimate:   0.2106E-03
 ------------------------------------------------------------------------------

      R M S  F L U C T U A T I O N S

 NSTEP =    30000   TIME(PS) =      80.000  TEMP(K) =     6.94  PRESS =   409.4
 Etot   =       140.2282  EKtot   =        26.4254  EPtot      =       133.6404
 BOND   =         1.5113  ANGLE   =         2.3959  DIHED      =         1.2035
 1-4 NB =         0.7207  1-4 EEL =         2.1243  VDWAALS    =        34.9392
 EELEC  =       148.7476  EHBOND  =         0.0000  RESTRAINT  =         0.0000
 EKCMT  =        17.9499  VIRIAL  =       197.3838  VOLUME     =      3619.8653
                                                    Density    =         0.1251
 Ewald error estimate:   0.1593E-03
 ------------------------------------------------------------------------------
